Version 4
SHEET 1 2420 1044
WIRE 1488 -16 1408 -16
WIRE 1744 0 1744 -32
WIRE 2128 0 2128 -32
WIRE 1488 16 1488 -16
WIRE 1712 16 1488 16
WIRE 2096 16 1952 16
WIRE 1712 48 1648 48
WIRE 2096 48 2032 48
WIRE 1488 64 1488 16
WIRE 1648 64 1648 48
WIRE 2032 64 2032 48
WIRE 1952 96 1952 16
WIRE 1952 96 1888 96
WIRE 2416 96 2272 96
WIRE 1712 144 1648 144
WIRE 2096 144 2032 144
WIRE 1360 160 1360 144
WIRE 1408 160 1408 -16
WIRE 1408 160 1360 160
WIRE 1488 176 1488 144
WIRE 1712 176 1488 176
WIRE 2096 176 2016 176
WIRE 1360 192 1360 160
WIRE 1328 208 1280 208
WIRE 1424 224 1392 224
WIRE 2016 224 2016 176
WIRE 1328 240 1216 240
WIRE 1216 272 1216 240
WIRE 1280 288 1280 208
WIRE 1488 288 1488 272
WIRE 1488 288 1280 288
WIRE 1488 304 1488 288
WIRE 1472 624 1392 624
WIRE 1728 640 1728 608
WIRE 2112 640 2112 608
WIRE 1472 656 1472 624
WIRE 1696 656 1472 656
WIRE 2080 656 1936 656
WIRE 1696 688 1632 688
WIRE 2080 688 2016 688
WIRE 1472 704 1472 656
WIRE 1632 704 1632 688
WIRE 2016 704 2016 688
WIRE 1936 736 1936 656
WIRE 1936 736 1872 736
WIRE 2400 736 2256 736
WIRE 1696 784 1632 784
WIRE 2080 784 2016 784
WIRE 1344 800 1344 784
WIRE 1392 800 1392 624
WIRE 1392 800 1344 800
WIRE 1472 816 1472 784
WIRE 1696 816 1472 816
WIRE 2080 816 2000 816
WIRE 1344 832 1344 800
WIRE 1312 848 1264 848
WIRE 1408 864 1376 864
WIRE 2000 864 2000 816
WIRE 1312 880 1200 880
WIRE 1200 912 1200 880
WIRE 1264 928 1264 848
WIRE 1472 928 1472 912
WIRE 1472 928 1264 928
WIRE 1472 944 1472 928
FLAG 1744 192 0
FLAG 1744 -112 0
FLAG 2208 160 0
FLAG 2128 192 0
FLAG 2128 -112 0
FLAG 2016 304 0
FLAG 1824 160 0
FLAG 1488 384 0
FLAG 1360 64 0
FLAG 1360 256 0
FLAG 1216 352 0
FLAG 1728 832 0
FLAG 1728 528 0
FLAG 2192 800 0
FLAG 2112 832 0
FLAG 2112 528 0
FLAG 2000 944 0
FLAG 1808 800 0
FLAG 1472 1024 0
FLAG 1344 704 0
FLAG 1344 896 0
FLAG 1200 992 0
SYMBOL voltage 1744 -16 R180
WINDOW 0 24 96 Left 2
WINDOW 3 24 16 Left 2
WINDOW 123 0 0 Left 0
WINDOW 39 0 0 Left 0
SYMATTR InstName V1
SYMATTR Value 5
SYMBOL res 1632 48 R0
SYMATTR InstName R1
SYMATTR Value 962
SYMBOL voltage 2128 -16 R180
WINDOW 0 24 96 Left 2
WINDOW 3 24 16 Left 2
WINDOW 123 0 0 Left 0
WINDOW 39 0 0 Left 0
SYMATTR InstName V3
SYMATTR Value 5
SYMBOL res 2016 48 R0
SYMATTR InstName R3
SYMATTR Value 16.5k
SYMBOL voltage 2016 208 R0
WINDOW 123 0 0 Left 0
WINDOW 39 0 0 Left 0
SYMATTR InstName V4
SYMATTR Value 2.048
SYMBOL voltage 1216 256 R0
WINDOW 123 0 0 Left 0
WINDOW 39 0 0 Left 0
SYMATTR InstName V6
SYMATTR Value 1.024
SYMBOL res 1472 288 R0
SYMATTR InstName R2
SYMATTR Value 24000
SYMBOL OpAmps\\LTC2055 1360 224 R0
SYMATTR InstName U3
SYMBOL voltage 1360 160 R180
WINDOW 0 24 96 Left 2
WINDOW 3 24 16 Left 2
WINDOW 123 0 0 Left 0
WINDOW 39 0 0 Left 0
SYMATTR InstName V7
SYMATTR Value 3.3
SYMBOL npn 1424 176 R0
SYMATTR InstName Q1
SYMATTR Value BC547B
SYMBOL res 1472 48 R0
SYMATTR InstName R4
SYMATTR Value 980
SYMBOL OpAmps\\AD8226 1744 96 R0
SYMATTR InstName U1
SYMBOL OpAmps\\AD8226 2128 96 R0
SYMATTR InstName U4
SYMBOL voltage 1728 624 R180
WINDOW 0 24 96 Left 2
WINDOW 3 24 16 Left 2
WINDOW 123 0 0 Left 0
WINDOW 39 0 0 Left 0
SYMATTR InstName V2
SYMATTR Value 15
SYMBOL res 1616 688 R0
SYMATTR InstName R5
SYMATTR Value 962
SYMBOL voltage 2112 624 R180
WINDOW 0 24 96 Left 2
WINDOW 3 24 16 Left 2
WINDOW 123 0 0 Left 0
WINDOW 39 0 0 Left 0
SYMATTR InstName V5
SYMATTR Value 15
SYMBOL res 2000 688 R0
SYMATTR InstName R6
SYMATTR Value 16.5k
SYMBOL voltage 2000 848 R0
WINDOW 123 0 0 Left 0
WINDOW 39 0 0 Left 0
SYMATTR InstName V8
SYMATTR Value 2.048
SYMBOL voltage 1200 896 R0
WINDOW 123 0 0 Left 0
WINDOW 39 0 0 Left 0
SYMATTR InstName V9
SYMATTR Value 1.024
SYMBOL res 1456 928 R0
SYMATTR InstName R7
SYMATTR Value 24000
SYMBOL OpAmps\\LTC2055 1344 864 R0
SYMATTR InstName U2
SYMBOL voltage 1344 800 R180
WINDOW 0 24 96 Left 2
WINDOW 3 24 16 Left 2
WINDOW 123 0 0 Left 0
WINDOW 39 0 0 Left 0
SYMATTR InstName V10
SYMATTR Value 3.3
SYMBOL npn 1408 816 R0
SYMATTR InstName Q2
SYMATTR Value BC547B
SYMBOL res 1456 688 R0
SYMATTR InstName R8
SYMATTR Value 980
SYMBOL OpAmps\\AD8220 1728 736 R0
SYMATTR InstName U5
SYMBOL OpAmps\\AD8220 2112 736 R0
SYMATTR InstName U6
TEXT 1798 376 Left 2 !.tran 1s
