Version 4
SHEET 1 2564 1044
WIRE 1744 -96 1744 -112
WIRE 2256 -96 2256 -112
WIRE 1488 -16 1408 -16
WIRE 1744 0 1744 -16
WIRE 2256 0 2256 -16
WIRE 1488 16 1488 -16
WIRE 1712 16 1488 16
WIRE 2224 16 1952 16
WIRE 1712 48 1648 48
WIRE 2224 48 2160 48
WIRE 1488 64 1488 16
WIRE 1648 64 1648 48
WIRE 2160 64 2160 48
WIRE 1952 96 1952 16
WIRE 1952 96 1888 96
WIRE 2544 96 2400 96
WIRE 1712 144 1648 144
WIRE 2224 144 2160 144
WIRE 1360 160 1360 144
WIRE 1408 160 1408 -16
WIRE 1408 160 1360 160
WIRE 1488 176 1488 144
WIRE 1712 176 1488 176
WIRE 2224 176 2144 176
WIRE 1360 192 1360 160
WIRE 1328 208 1280 208
WIRE 1424 224 1392 224
WIRE 1744 224 1744 192
WIRE 1792 224 1744 224
WIRE 2144 224 2144 176
WIRE 2256 224 2256 192
WIRE 2304 224 2256 224
WIRE 1328 240 1216 240
WIRE 2304 256 2304 224
WIRE 1216 272 1216 240
WIRE 1280 288 1280 208
WIRE 1488 288 1488 272
WIRE 1488 288 1280 288
WIRE 1488 304 1488 288
WIRE 1712 304 1616 304
WIRE 1744 304 1712 304
WIRE 1616 320 1616 304
WIRE 1712 320 1712 304
WIRE 2224 336 2128 336
WIRE 2256 336 2224 336
WIRE 2128 352 2128 336
WIRE 2224 352 2224 336
WIRE 1472 624 1392 624
WIRE 1728 640 1728 608
WIRE 2112 640 2112 608
WIRE 1472 656 1472 624
WIRE 1696 656 1472 656
WIRE 2080 656 1936 656
WIRE 1696 688 1632 688
WIRE 2080 688 2016 688
WIRE 1472 704 1472 656
WIRE 1632 704 1632 688
WIRE 2016 704 2016 688
WIRE 1936 736 1936 656
WIRE 1936 736 1872 736
WIRE 2400 736 2256 736
WIRE 1696 784 1632 784
WIRE 2080 784 2016 784
WIRE 1344 800 1344 784
WIRE 1392 800 1392 624
WIRE 1392 800 1344 800
WIRE 1472 816 1472 784
WIRE 1696 816 1472 816
WIRE 2080 816 2000 816
WIRE 1344 832 1344 800
WIRE 1312 848 1264 848
WIRE 1408 864 1376 864
WIRE 2000 864 2000 816
WIRE 1312 880 1200 880
WIRE 1200 912 1200 880
WIRE 1264 928 1264 848
WIRE 1472 928 1472 912
WIRE 1472 928 1264 928
WIRE 1472 944 1472 928
FLAG 1744 -112 0
FLAG 2336 160 0
FLAG 2144 304 0
FLAG 1824 160 0
FLAG 1488 384 0
FLAG 1360 64 0
FLAG 1360 256 0
FLAG 1216 352 0
FLAG 1728 832 0
FLAG 1728 528 0
FLAG 2192 800 0
FLAG 2112 832 0
FLAG 2112 528 0
FLAG 2000 944 0
FLAG 1808 800 0
FLAG 1472 1024 0
FLAG 1344 704 0
FLAG 1344 896 0
FLAG 1200 992 0
FLAG 2256 -112 0
FLAG 2304 352 0
FLAG 2128 432 0
FLAG 1792 320 0
FLAG 2224 432 0
FLAG 1616 400 0
FLAG 1712 400 0
SYMBOL voltage 1744 0 R180
WINDOW 0 24 96 Left 2
WINDOW 3 24 16 Left 2
WINDOW 123 0 0 Left 0
WINDOW 39 0 0 Left 0
SYMATTR InstName V1
SYMATTR Value 5
SYMBOL res 1632 48 R0
SYMATTR InstName R1
SYMATTR Value 962
SYMBOL res 2144 48 R0
SYMATTR InstName R3
SYMATTR Value 16.5k
SYMBOL voltage 2144 208 R0
WINDOW 123 0 0 Left 0
WINDOW 39 0 0 Left 0
SYMATTR InstName V4
SYMATTR Value 2.048
SYMBOL voltage 1216 256 R0
WINDOW 123 0 0 Left 0
WINDOW 39 0 0 Left 0
SYMATTR InstName V6
SYMATTR Value 1.024
SYMBOL res 1472 288 R0
SYMATTR InstName R2
SYMATTR Value 24000
SYMBOL OpAmps\\LTC2055 1360 224 R0
SYMATTR InstName U3
SYMBOL voltage 1360 160 R180
WINDOW 0 24 96 Left 2
WINDOW 3 24 16 Left 2
WINDOW 123 0 0 Left 0
WINDOW 39 0 0 Left 0
SYMATTR InstName V7
SYMATTR Value 3.3
SYMBOL npn 1424 176 R0
SYMATTR InstName Q1
SYMATTR Value BC547B
SYMBOL res 1472 48 R0
SYMATTR InstName R4
SYMATTR Value 1200
SYMBOL OpAmps\\AD8226 1744 96 R0
SYMATTR InstName U1
SYMBOL OpAmps\\AD8226 2256 96 R0
SYMATTR InstName U4
SYMBOL voltage 1728 624 R180
WINDOW 0 24 96 Left 2
WINDOW 3 24 16 Left 2
WINDOW 123 0 0 Left 0
WINDOW 39 0 0 Left 0
SYMATTR InstName V2
SYMATTR Value 15
SYMBOL res 1616 688 R0
SYMATTR InstName R5
SYMATTR Value 962
SYMBOL voltage 2112 624 R180
WINDOW 0 24 96 Left 2
WINDOW 3 24 16 Left 2
WINDOW 123 0 0 Left 0
WINDOW 39 0 0 Left 0
SYMATTR InstName V5
SYMATTR Value 15
SYMBOL res 2000 688 R0
SYMATTR InstName R6
SYMATTR Value 16.5k
SYMBOL voltage 2000 848 R0
WINDOW 123 0 0 Left 0
WINDOW 39 0 0 Left 0
SYMATTR InstName V8
SYMATTR Value 2.048
SYMBOL voltage 1200 896 R0
WINDOW 123 0 0 Left 0
WINDOW 39 0 0 Left 0
SYMATTR InstName V9
SYMATTR Value 1.024
SYMBOL res 1456 928 R0
SYMATTR InstName R7
SYMATTR Value 24000
SYMBOL OpAmps\\LTC2055 1344 864 R0
SYMATTR InstName U2
SYMBOL voltage 1344 800 R180
WINDOW 0 24 96 Left 2
WINDOW 3 24 16 Left 2
WINDOW 123 0 0 Left 0
WINDOW 39 0 0 Left 0
SYMATTR InstName V10
SYMATTR Value 3.3
SYMBOL npn 1408 816 R0
SYMATTR InstName Q2
SYMATTR Value BC547B
SYMBOL res 1456 688 R0
SYMATTR InstName R8
SYMATTR Value 1200
SYMBOL OpAmps\\AD8220 1728 736 R0
SYMATTR InstName U5
SYMBOL OpAmps\\AD8220 2112 736 R0
SYMATTR InstName U6
SYMBOL voltage 2256 0 R180
WINDOW 0 24 96 Left 2
WINDOW 3 24 16 Left 2
WINDOW 123 0 0 Left 0
WINDOW 39 0 0 Left 0
SYMATTR InstName V3
SYMATTR Value 5
SYMBOL voltage 2128 336 R0
WINDOW 123 0 0 Left 0
WINDOW 39 0 0 Left 0
SYMATTR InstName V11
SYMATTR Value 0
SYMBOL nmos 2256 256 R0
SYMATTR InstName M1
SYMATTR Value BSP89
SYMBOL nmos 1744 224 R0
SYMATTR InstName M2
SYMATTR Value BSP89
SYMBOL res 2208 336 R0
SYMATTR InstName R9
SYMATTR Value 100k
SYMBOL voltage 1616 304 R0
WINDOW 123 0 0 Left 0
WINDOW 39 0 0 Left 0
SYMATTR InstName V12
SYMATTR Value 0
SYMBOL res 1696 304 R0
SYMATTR InstName R10
SYMATTR Value 100k
TEXT 1088 528 Left 2 !.tran 1s
